LTspice 24.0.12 for Windows
Circuit: * C:\Users\jagad\OneDrive\Documents\LTspice\CMOS NOR.asc
Start Time: Tue Apr 15 17:14:26 2025
solver = Normal
Maximum thread count: 22
tnom = 27
temp = 27
method = modified trap
Direct Newton iteration for .op point succeeded.
Total elapsed time: 0.310 seconds.

