LTspice 24.0.12 for Windows
Circuit: * C:\Users\jagad\OneDrive\Documents\LTspice\CMOS AND.asc
Start Time: Sat Apr 26 21:02:52 2025
solver = Normal
Maximum thread count: 22
tnom = 27
temp = 27
method = modified trap
Direct Newton iteration for .op point succeeded.
Total elapsed time: 0.325 seconds.

